 CRYSTAL
 PRIMVEC
    5.430700000    0.000000000    0.000000000
    0.000000000    5.430700000    0.000000000
    0.000000000    0.000000000    5.430700000
 PRIMCOORD
           8           1
Si        0.000000000    0.000000000    0.000000000
Si        0.000000000    2.715350000    2.715350000
Si        1.357675000    1.357675000    1.357675000
Si        2.715350000    0.000000000    2.715350000
Si        1.357675000    4.073025000    4.073025000
Si        4.073025000    4.073025000    1.357675000
Si        4.073025000    1.357675000    4.073025000
Si        2.715350000    2.715350000    0.000000000
